/batch
/config,noeldb,1     ! force off writing results to database
*get,_wallstrt,active,,time,wall
! ANSYS input file written by Workbench version 2026 R1
/TITLE,Simulation 4 - coupled sector - exploratory
! ****** Begin Custom Load Command Snippet ******
/COM, ACT Extensions:
/COM,     LSDYNA, 2026.1
/COM,     5f463412-bd3e-484b-87e7-cbc0a665e474, wbex
/COM,     ANSYSMotion, 2026.1
/COM,     20180725-3f81-49eb-9f31-41364844c769, wbex
! ****** End   Custom Load Command Snippet ******
/com,--- Data in consistent MKS units. See Solving Units in the help system for more information.
/units,MKS
/nopr
/prep7
! Turn off shape checking because checks already performed inside WB mesher.
! See help system for more information.
SHPP,OFF,,NOWARN
/nolist
etcon,set             ! allow ANSYS to choose best KEYOP's for 180x elements, resets any applicable keyopt to MAPDL defaults
/com,*********** Send User Defined Coordinate System(s) ***********
csys,0
/com,*********** Nodes for the whole assembly ***********
nblock,3,,59994
(1i9,3e20.9e3)
        1     1.638180682E-17     9.149000000E-01     6.792515625E-02
        2     1.612188828E-17     9.149000000E-01     6.790531250E-02
        3     1.586196974E-17     9.149000000E-01     6.788546875E-02
        4     1.560205120E-17     9.149000000E-01     6.786562500E-02
        5     1.534213266E-17     9.149000000E-01     6.784578125E-02
        6     1.508221412E-17     9.149000000E-01     6.782593750E-02
        7     1.482229558E-17     9.149000000E-01     6.780609375E-02
        8     1.456237705E-17     9.149000000E-01     6.778625000E-02
        9     1.430245851E-17     9.149000000E-01     6.776640625E-02
       10     1.404253997E-17     9.149000000E-01     6.774656250E-02
       11     1.378262143E-17     9.149000000E-01     6.772671875E-02
       12     1.352270289E-17     9.149000000E-01     6.770687500E-02
       13     1.326278435E-17     9.149000000E-01     6.768703125E-02
       14     1.300286582E-17     9.149000000E-01     6.766718750E-02
       15     1.274294728E-17     9.149000000E-01     6.764734375E-02
       16     1.248302874E-17     9.149000000E-01     6.762750000E-02
       17     1.222311020E-17     9.149000000E-01     6.760765625E-02
       18     1.196319166E-17     9.149000000E-01     6.758781250E-02
       19     1.170327312E-17     9.149000000E-01     6.756796875E-02
       20     1.144335458E-17     9.149000000E-01     6.754812500E-02
! ... 54521 like lines cut
/com,*********** Elements for Body 1 'phe0_inner' ***********
et,1,278
MAT,1 $ TYPE,1 $ REAL,1 $ SECNUM,1 $ ESYS,0    ! ELEMNODES = 8
eblock,21,COMPACT,,12800
(21i9)
        1        1    19040    19241    19506    12474    19139    19140    19507
        2        1    19506    19241    19040    12475    18775    18939    18940
        3        1       64    19041    19040    12474    12411    19141    19139
        4        1    19040    19041       64    12475    18940    18941    12538
        5       64      127    19042    19041    12411    12348    19142    19141
        6       64    19041    19042      127    12538    18941    18942    12601
        7      127      190    19043    19042    12348    12285    19143    19142
        8      127    19042    19043      190    12601    18942    18943    12664
        9      190      253    19044    19043    12285    12222    19144    19143
       10      190    19043    19044      253    12664    18943    18944    12727
       11      253      316    19045    19044    12222    12159    19145    19144
       12      253    19044    19045      316    12727    18944    18945    12790
       13      316      379    19046    19045    12159    12096    19146    19145
       14      316    19045    19046      379    12790    18945    18946    12853
       15      379      442    19047    19046    12096    12033    19147    19146
       16      379    19046    19047      442    12853    18946    18947    12916
       17      442      505    19048    19047    12033    11970    19148    19147
       18      442    19047    19048      505    12916    18947    18948    12979
       19      505      568    19049    19048    11970    11907    19149    19148
       20      505    19048    19049      568    12979    18948    18949    13042
! ... 12781 like lines cut
secnum,1    ! reset the section ID to default
! Material Id = {2F2306F7-6433-41CF-A224-D037E76A45F0}
/com,*********** Elements for Body 2 'epoxy' ***********
et,2,278
MAT,2 $ TYPE,2 $ REAL,2 $ SECNUM,2 $ ESYS,0    ! ELEMNODES = 8
eblock,21,COMPACT,,3200
(21i9)
    12801    19696    24383    24584    24801    22665    24482    24483    24802
    12802    19696    24801    24584    24383    22666    24166    24282    24283
    12803    19696    19711    24384    24383    22665    22650    24484    24482
    12804    19696    24383    24384    19711    22666    24283    24284    22681
    12805    19711    19726    24385    24384    22650    22635    24485    24484
    12806    19711    24384    24385    19726    22681    24284    24285    22696
    12807    19726    19741    24386    24385    22635    22620    24486    24485
    12808    19726    24385    24386    19741    22696    24285    24286    22711
    12809    19741    19756    24387    24386    22620    22605    24487    24486
    12810    19741    24386    24387    19756    22711    24286    24287    22726
    12811    19756    19771    24388    24387    22605    22590    24488    24487
    12812    19756    24387    24388    19771    22726    24287    24288    22741
    12813    19771    19786    24389    24388    22590    22575    24489    24488
    12814    19771    24388    24389    19786    22741    24288    24289    22756
    12815    19786    19801    24390    24389    22575    22560    24490    24489
    12816    19786    24389    24390    19801    22756    24289    24290    22771
    12817    19801    19816    24391    24390    22560    22545    24491    24490
    12818    19801    24390    24391    19816    22771    24290    24291    22786
    12819    19816    19831    24392    24391    22545    22530    24492    24491
    12820    19816    24391    24392    19831    22786    24291    24292    22801
! ... 3181 like lines cut
secnum,1    ! reset the section ID to default
! Material Id = {AE55B848-0C3B-428F-ACC5-1BFB7B23EEE1}
/com,*********** Elements for Body 3 'phe1_outer' ***********
et,3,278
MAT,3 $ TYPE,3 $ REAL,3 $ SECNUM,3 $ ESYS,0    ! ELEMNODES = 8
eblock,21,COMPACT,,12800
(21i9)
    16001    24847    44290    44289    44186    37320    44415    44188    44187
    16002    24847    44186    44289    44290    37321    43685    43684    43683
    16003    24847    24946    44291    44290    37320    37221    44414    44415
    16004    24847    44290    44291    24946    37321    43683    43682    37420
    16005    24946    25045    44292    44291    37221    37122    44413    44414
    16006    24946    44291    44292    25045    37420    43682    43681    37519
    16007    25045    25144    44293    44292    37122    37023    44412    44413
    16008    25045    44292    44293    25144    37519    43681    43680    37618
    16009    25144    25243    44294    44293    37023    36924    44411    44412
    16010    25144    44293    44294    25243    37618    43680    43679    37717
    16011    25243    25342    44295    44294    36924    36825    44410    44411
    16012    25243    44294    44295    25342    37717    43679    43678    37816
    16013    25342    25441    44296    44295    36825    36726    44409    44410
    16014    25342    44295    44296    25441    37816    43678    43677    37915
    16015    25441    25540    44297    44296    36726    36627    44408    44409
    16016    25441    44296    44297    25540    37915    43677    43676    38014
    16017    25540    25639    44298    44297    36627    36528    44407    44408
    16018    25540    44297    44298    25639    38014    43676    43675    38113
    16019    25639    25738    44299    44298    36528    36429    44406    44407
    16020    25639    44298    44299    25738    38113    43675    43674    38212
! ... 12781 like lines cut
secnum,1    ! reset the section ID to default
! Material Id = {8A9800FA-344C-4BD4-8DC2-9CE073FCAC5D}
/com,*********** Elements for Body 4 'aluminium' ***********
et,4,278
MAT,4 $ TYPE,4 $ REAL,4 $ SECNUM,4 $ ESYS,0    ! ELEMNODES = 8
eblock,21,COMPACT,,6400
(21i9)
    28801    44542    54417    54416    54313    50679    54478    54315    54314
    28802    44542    54313    54416    54417    50680    53812    53811    53810
    28803    44542    44641    54418    54417    50679    50580    54477    54478
    28804    44542    54417    54418    44641    50680    53810    53809    50779
    28805    44641    44740    54419    54418    50580    50481    54476    54477
    28806    44641    54418    54419    44740    50779    53809    53808    50878
    28807    44740    44839    54420    54419    50481    50382    54475    54476
    28808    44740    54419    54420    44839    50878    53808    53807    50977
    28809    44839    44938    54421    54420    50382    50283    54474    54475
    28810    44839    54420    54421    44938    50977    53807    53806    51076
    28811    44938    45037    54422    54421    50283    50184    54473    54474
    28812    44938    54421    54422    45037    51076    53806    53805    51175
    28813    45037    45136    54423    54422    50184    50085    54472    54473
    28814    45037    54422    54423    45136    51175    53805    53804    51274
    28815    45136    45235    54424    54423    50085    49986    54471    54472
    28816    45136    54423    54424    45235    51274    53804    53803    51373
    28817    45235    45334    54425    54424    49986    49887    54470    54471
    28818    45235    54424    54425    45334    51373    53803    53802    51472
    28819    45334    45433    54426    54425    49887    49788    54469    54470
    28820    45334    54425    54426    45433    51472    53802    53801    51571
! ... 6381 like lines cut
secnum,1    ! reset the section ID to default
! Material Id = {22AA516A-3C25-49D1-BB2C-58A84B2540BA}
toffst,273.15,      ! Temperature offset from absolute zero
/com,*********** Send Materials ***********
MPTEMP,,,,,,,,
MPTEMP,1,26.85
MPTEMP,2,326.85
MPTEMP,3,626.85
MPDATA,DENS,1, ,1250,1200,1150,	! kg m^-3
MPTEMP,,,,,,,,
MPTEMP,,,,,,,,
MPTEMP,1,26.85
MPTEMP,2,326.85
MPTEMP,3,626.85
MPDATA,C,1, ,900,1100,1300,	! J kg^-1 C^-1
MPTEMP,,,,,,,,
MPTEMP,,,,,,,,
MPTEMP,1,26.85
MPTEMP,2,326.85
MPTEMP,3,626.85
MPDATA,KXX,1, ,0.25,0.32,0.36,	! W m^-1 C^-1
MPTEMP,,,,,,,,
MP,UVID,1,654b6d64-56fd-4f0d-83d1-3ac57f4c99f5

Temperature = 'TEMP' ! Temperature
MP,DENS,2,1150,	! kg m^-3
MPTEMP,,,,,,,,
MPTEMP,1,26.85
MPTEMP,2,326.85
MPDATA,KXX,2, ,0.25,0.3,	! W m^-1 C^-1
MPTEMP,,,,,,,,
MPTEMP,,,,,,,,
MPTEMP,1,26.85
MPTEMP,2,326.85
MPDATA,C,2, ,1000,1100,	! J kg^-1 C^-1
MPTEMP,,,,,,,,
MP,UVID,2,13818fdf-eb59-411f-a506-0038a3db8c0e

Temperature = 'TEMP' ! Temperature
MPTEMP,,,,,,,,
MPTEMP,1,26.85
MPTEMP,2,326.85
MPTEMP,3,626.85
MPDATA,DENS,3, ,1250,1200,1150,	! kg m^-3
MPTEMP,,,,,,,,
MPTEMP,,,,,,,,
MPTEMP,1,26.85
MPTEMP,2,326.85
MPTEMP,3,626.85
MPDATA,KXX,3, ,0.25,0.32,0.36,	! W m^-1 C^-1
MPTEMP,,,,,,,,
MPTEMP,,,,,,,,
MPTEMP,1,26.85
MPTEMP,2,326.85
MPTEMP,3,626.85
MPDATA,C,3, ,900,1100,1300,	! J kg^-1 C^-1
MPTEMP,,,,,,,,
MP,UVID,3,32ccb6be-06e2-47c1-adbb-cc317818a655

MP,DENS,4,2700,	! kg m^-3
MP,KXX,4,167,	! W m^-1 C^-1
MP,C,4,896,	! J kg^-1 C^-1
MP,UVID,4,ef8ec795-0078-4a56-8026-184df86deb79

! ****** Begin Command Snippet ******
*dim,matids,,1
*set,matids(1),1
*set,matid,1
*dim,typeids,,1
*set,typeids(1),1
! Iteration 4: fixed REFERENCE densities; fixed mesh, no thermal expansion.
! Avoids temperature-induced mass changes unaccounted for in gas generation.
TBDELE,USER,1
TBDELE,STATE,1
TB,USER,1,10,15,THERM
TBTEMP,22.0
TBDATA,1,0.25,0.3,900,800,1250.0,600.0
TBDATA,7,333,64081,1,418000.0,273.15,1600
TBDATA,13,300,1,1
TBTEMP,26.85
TBDATA,1,0.25,0.3,900,800,1250.0,600.0
TBDATA,7,333,64081,1,418000.0,273.15,1600
TBDATA,13,300,1,1
TBTEMP,326.85
TBDATA,1,0.32,0.35,1100,900,1250.0,600.0
TBDATA,7,333,64081,1,418000.0,273.15,1600
TBDATA,13,300,1,1
TBTEMP,626.85
TBDATA,1,0.36,0.4,1300,1000,1250.0,600.0
TBDATA,7,333,64081,1,418000.0,273.15,1600
TBDATA,13,300,1,1
TBTEMP,776.85
TBDATA,1,0.36,0.44,1300,1250,1250.0,600.0
TBDATA,7,333,64081,1,418000.0,273.15,1600
TBDATA,13,300,1,1
TBTEMP,926.85
TBDATA,1,0.36,0.49,1300,1550,1250.0,600.0
TBDATA,7,333,64081,1,418000.0,273.15,1600
TBDATA,13,300,1,1
TBTEMP,1226.85
TBDATA,1,0.36,0.68,1300,1950,1250.0,600.0
TBDATA,7,333,64081,1,418000.0,273.15,1600
TBDATA,13,300,1,1
TBTEMP,1426.85
TBDATA,1,0.36,0.81,1300,2060,1250.0,600.0
TBDATA,7,333,64081,1,418000.0,273.15,1600
TBDATA,13,300,1,1
TBTEMP,1926.85
TBDATA,1,0.36,1.24,1300,2085,1250.0,600.0
TBDATA,7,333,64081,1,418000.0,273.15,1600
TBDATA,13,300,1,1
TBTEMP,2476.85
TBDATA,1,0.36,1.73,1300,2090,1250.0,600.0
TBDATA,7,333,64081,1,418000.0,273.15,1600
TBDATA,13,300,1,1
TB,STATE,1,,5
TBDATA,1,0,0,0,0,0
*set, matids, ,
*set, typeids, ,
! ****** End   Command Snippet ******
!************************* Model Summary ********************
! phe0_inner,	PHENOLIC_PYROLYSIS,	matid,	1
! epoxy,	EPOXY,	matid,	2
! phe1_outer,	PHENOLIC_VIRGIN,	matid,	3
! aluminium,	ALUMINUM,	matid,	4
!************************* End Model Summary ********************
! get the diagonal of the bounding box. Needed later for other things
*get,_xmin,node,,mnloc,x
*get,_ymin,node,,mnloc,y
*get,_zmin,node,,mnloc,z
*get,_xmax,node,,mxloc,x
*get,_ymax,node,,mxloc,y
*get,_zmax,node,,mxloc,z
_ASMDIAG=(_xmax-_xmin)*(_xmax-_xmin)+(_ymax-_ymin)*(_ymax-_ymin)+(_zmax-_zmin)*(_zmax-_zmin)
_ASMDIAG=SQRT(_ASMDIAG)
/com,*********** Create Contact "Bonded - phe0_outer to epoxy_inner" ***********
/com,            Real Constant Set For Above Contact Is 6 & 5 
*set,tid,6
*set,cid,5
r,tid
r,cid
et,tid,170
et,cid,174
MAT,6 $ TYPE,6 $ REAL,6 $ SECNUM,6 $ ESYS,0    ! ELEMNODES = 4
eblock,21,COMPACT,,200
(21i9)
    72705    19139    19040    19241    19140
    72706    19141    19041    19040    19139
    72707    19142    19042    19041    19141
    72708    19143    19043    19042    19142
    72709    19144    19044    19043    19143
    72710    19145    19045    19044    19144
    72711    19146    19046    19045    19145
    72712    19147    19047    19046    19146
    72713    19148    19048    19047    19147
    72714    19149    19049    19048    19148
    72715    19150    19050    19049    19149
    72716    19151    19051    19050    19150
    72717    19152    19052    19051    19151
    72718    19153    19053    19052    19152
    72719    19154    19054    19053    19153
    72720    19155    19055    19054    19154
    72721    19156    19056    19055    19155
    72722    19157    19057    19056    19156
    72723    19158    19058    19057    19157
    72724    19159    19059    19058    19158
! ... 181 like lines cut
secnum,1    ! reset the section ID to default
MAT,5 $ TYPE,5 $ REAL,5 $ SECNUM,5 $ ESYS,0    ! ELEMNODES = 4
eblock,21,COMPACT,,200
(21i9)
    72905    19139    19040    19241    19140
    72906    19141    19041    19040    19139
    72907    19142    19042    19041    19141
    72908    19143    19043    19042    19142
    72909    19144    19044    19043    19143
    72910    19145    19045    19044    19144
    72911    19146    19046    19045    19145
    72912    19147    19047    19046    19146
    72913    19148    19048    19047    19147
    72914    19149    19049    19048    19148
    72915    19150    19050    19049    19149
    72916    19151    19051    19050    19150
    72917    19152    19052    19051    19151
    72918    19153    19053    19052    19152
    72919    19154    19054    19053    19153
    72920    19155    19055    19054    19154
    72921    19156    19056    19055    19155
    72922    19157    19057    19056    19156
    72923    19158    19058    19057    19157
    72924    19159    19059    19058    19158
! ... 181 like lines cut
secnum,1    ! reset the section ID to default
MAT,5 $ TYPE,5 $ REAL,6 $ SECNUM,5 $ ESYS,0    ! ELEMNODES = 4
eblock,21,COMPACT,,200
(21i9)
    73105    24783    24585    24785    24784
    73106    24782    24586    24585    24783
    73107    24781    24587    24586    24782
    73108    24780    24588    24587    24781
    73109    24779    24589    24588    24780
    73110    24778    24590    24589    24779
    73111    24777    24591    24590    24778
    73112    24776    24592    24591    24777
    73113    24775    24593    24592    24776
    73114    24774    24594    24593    24775
    73115    24773    24595    24594    24774
    73116    24772    24596    24595    24773
    73117    24771    24597    24596    24772
    73118    24770    24598    24597    24771
    73119    24769    24599    24598    24770
    73120    24768    24600    24599    24769
    73121    24767    24601    24600    24768
    73122    24766    24602    24601    24767
    73123    24765    24603    24602    24766
    73124    24764    24604    24603    24765
! ... 181 like lines cut
secnum,1    ! reset the section ID to default
MAT,6 $ TYPE,6 $ REAL,5 $ SECNUM,6 $ ESYS,0    ! ELEMNODES = 4
eblock,21,COMPACT,,200
(21i9)
    73305    24783    24585    24785    24784
    73306    24782    24586    24585    24783
    73307    24781    24587    24586    24782
    73308    24780    24588    24587    24781
    73309    24779    24589    24588    24780
    73310    24778    24590    24589    24779
    73311    24777    24591    24590    24778
    73312    24776    24592    24591    24777
    73313    24775    24593    24592    24776
    73314    24774    24594    24593    24775
    73315    24773    24595    24594    24774
    73316    24772    24596    24595    24773
    73317    24771    24597    24596    24772
    73318    24770    24598    24597    24771
    73319    24769    24599    24598    24770
    73320    24768    24600    24599    24769
    73321    24767    24601    24600    24768
    73322    24766    24602    24601    24767
    73323    24765    24603    24602    24766
    73324    24764    24604    24603    24765
! ... 181 like lines cut
secnum,1    ! reset the section ID to default
keyo,cid,8,2               ! auto create asymmetric contact (from Program Controlled setting)
keyo,cid,10,0              ! adjust contact stiffness each NR iteration (from Program Controlled setting)
keyo,cid,12,5              ! bonded always
keyo,cid,18,1              ! small sliding turned on by application
keyo,cid,2,0               ! augmented Lagrange (from Program Controlled setting)
keyo,cid,4,0               ! on Gauss point (from Program Controlled setting)
keyo,cid,9,1               ! ignore initial gaps/penetration
keyo,cid,7,0               ! No Prediction
rmod,tid,3,10.      ! FKN
rmod,tid,5,0.       ! ICONT
rmod,tid,6,0.       ! PINB
rmod,tid,10,0.      ! CNOF
rmod,tid,12,0.      ! FKT
rmod,tid,36,224     ! WB DSID
rmod,cid,3,10.      ! FKN
rmod,cid,5,0.       ! ICONT
rmod,cid,6,0.       ! PINB
rmod,cid,10,0.      ! CNOF
rmod,cid,12,0.      ! FKT
rmod,cid,36,224     ! WB DSID
*set,_maxkxx,1670000.
rmod,cid,14,_maxkxx/_ASMDIAG         ! TCC, Divide by Length since Traction Based
rmod,tid,14,_maxkxx/_ASMDIAG      ! TCC, Divide by Length since Traction Based
keyo,cid,1,2     ! Pure thermal contact
/com,*********** Create Contact "Bonded - epoxy_outer to phe1_inner" ***********
/com,            Real Constant Set For Above Contact Is 8 & 7 
*set,tid,8
*set,cid,7
r,tid
r,cid
et,tid,170
et,cid,174
MAT,8 $ TYPE,8 $ REAL,8 $ SECNUM,8 $ ESYS,0    ! ELEMNODES = 4
eblock,21,COMPACT,,200
(21i9)
    73505    24482    24383    24584    24483
    73506    24484    24384    24383    24482
    73507    24485    24385    24384    24484
    73508    24486    24386    24385    24485
    73509    24487    24387    24386    24486
    73510    24488    24388    24387    24487
    73511    24489    24389    24388    24488
    73512    24490    24390    24389    24489
    73513    24491    24391    24390    24490
    73514    24492    24392    24391    24491
    73515    24493    24393    24392    24492
    73516    24494    24394    24393    24493
    73517    24495    24395    24394    24494
    73518    24496    24396    24395    24495
    73519    24497    24397    24396    24496
    73520    24498    24398    24397    24497
    73521    24499    24399    24398    24498
    73522    24500    24400    24399    24499
    73523    24501    24401    24400    24500
    73524    24502    24402    24401    24501
! ... 181 like lines cut
secnum,1    ! reset the section ID to default
MAT,7 $ TYPE,7 $ REAL,7 $ SECNUM,7 $ ESYS,0    ! ELEMNODES = 4
eblock,21,COMPACT,,200
(21i9)
    73705    24482    24383    24584    24483
    73706    24484    24384    24383    24482
    73707    24485    24385    24384    24484
    73708    24486    24386    24385    24485
    73709    24487    24387    24386    24486
    73710    24488    24388    24387    24487
    73711    24489    24389    24388    24488
    73712    24490    24390    24389    24489
    73713    24491    24391    24390    24490
    73714    24492    24392    24391    24491
    73715    24493    24393    24392    24492
    73716    24494    24394    24393    24493
    73717    24495    24395    24394    24494
    73718    24496    24396    24395    24495
    73719    24497    24397    24396    24496
    73720    24498    24398    24397    24497
    73721    24499    24399    24398    24498
    73722    24500    24400    24399    24499
    73723    24501    24401    24400    24500
    73724    24502    24402    24401    24501
! ... 181 like lines cut
secnum,1    ! reset the section ID to default
MAT,7 $ TYPE,7 $ REAL,8 $ SECNUM,7 $ ESYS,0    ! ELEMNODES = 4
eblock,21,COMPACT,,200
(21i9)
    73905    44286    44088    44288    44287
    73906    44285    44089    44088    44286
    73907    44284    44090    44089    44285
    73908    44283    44091    44090    44284
    73909    44282    44092    44091    44283
    73910    44281    44093    44092    44282
    73911    44280    44094    44093    44281
    73912    44279    44095    44094    44280
    73913    44278    44096    44095    44279
    73914    44277    44097    44096    44278
    73915    44276    44098    44097    44277
    73916    44275    44099    44098    44276
    73917    44274    44100    44099    44275
    73918    44273    44101    44100    44274
    73919    44272    44102    44101    44273
    73920    44271    44103    44102    44272
    73921    44270    44104    44103    44271
    73922    44269    44105    44104    44270
    73923    44268    44106    44105    44269
    73924    44267    44107    44106    44268
! ... 181 like lines cut
secnum,1    ! reset the section ID to default
MAT,8 $ TYPE,8 $ REAL,7 $ SECNUM,8 $ ESYS,0    ! ELEMNODES = 4
eblock,21,COMPACT,,200
(21i9)
    74105    44286    44088    44288    44287
    74106    44285    44089    44088    44286
    74107    44284    44090    44089    44285
    74108    44283    44091    44090    44284
    74109    44282    44092    44091    44283
    74110    44281    44093    44092    44282
    74111    44280    44094    44093    44281
    74112    44279    44095    44094    44280
    74113    44278    44096    44095    44279
    74114    44277    44097    44096    44278
    74115    44276    44098    44097    44277
    74116    44275    44099    44098    44276
    74117    44274    44100    44099    44275
    74118    44273    44101    44100    44274
    74119    44272    44102    44101    44273
    74120    44271    44103    44102    44272
    74121    44270    44104    44103    44271
    74122    44269    44105    44104    44270
    74123    44268    44106    44105    44269
    74124    44267    44107    44106    44268
! ... 181 like lines cut
secnum,1    ! reset the section ID to default
keyo,cid,8,2               ! auto create asymmetric contact (from Program Controlled setting)
keyo,cid,10,0              ! adjust contact stiffness each NR iteration (from Program Controlled setting)
keyo,cid,12,5              ! bonded always
keyo,cid,18,1              ! small sliding turned on by application
keyo,cid,2,0               ! augmented Lagrange (from Program Controlled setting)
keyo,cid,4,0               ! on Gauss point (from Program Controlled setting)
keyo,cid,9,1               ! ignore initial gaps/penetration
keyo,cid,7,0               ! No Prediction
rmod,tid,3,10.      ! FKN
rmod,tid,5,0.       ! ICONT
rmod,tid,6,0.       ! PINB
rmod,tid,10,0.      ! CNOF
rmod,tid,12,0.      ! FKT
rmod,tid,36,227     ! WB DSID
rmod,cid,3,10.      ! FKN
rmod,cid,5,0.       ! ICONT
rmod,cid,6,0.       ! PINB
rmod,cid,10,0.      ! CNOF
rmod,cid,12,0.      ! FKT
rmod,cid,36,227     ! WB DSID
*set,_maxkxx,1670000.
rmod,cid,14,_maxkxx/_ASMDIAG         ! TCC, Divide by Length since Traction Based
rmod,tid,14,_maxkxx/_ASMDIAG      ! TCC, Divide by Length since Traction Based
keyo,cid,1,2     ! Pure thermal contact
/com,*********** Create Contact "Bonded - phe1_outer to aluminium_inner" ***********
/com,            Real Constant Set For Above Contact Is 10 & 9 
*set,tid,10
*set,cid,9
r,tid
r,cid
et,tid,170
et,cid,174
MAT,10 $ TYPE,10 $ REAL,10 $ SECNUM,10 $ ESYS,0    ! ELEMNODES = 4
eblock,21,COMPACT,,200
(21i9)
    74305    43985    43886    44087    43986
    74306    43987    43887    43886    43985
    74307    43988    43888    43887    43987
    74308    43989    43889    43888    43988
    74309    43990    43890    43889    43989
    74310    43991    43891    43890    43990
    74311    43992    43892    43891    43991
    74312    43993    43893    43892    43992
    74313    43994    43894    43893    43993
    74314    43995    43895    43894    43994
    74315    43996    43896    43895    43995
    74316    43997    43897    43896    43996
    74317    43998    43898    43897    43997
    74318    43999    43899    43898    43998
    74319    44000    43900    43899    43999
    74320    44001    43901    43900    44000
    74321    44002    43902    43901    44001
    74322    44003    43903    43902    44002
    74323    44004    43904    43903    44003
    74324    44005    43905    43904    44004
! ... 181 like lines cut
secnum,1    ! reset the section ID to default
MAT,9 $ TYPE,9 $ REAL,9 $ SECNUM,9 $ ESYS,0    ! ELEMNODES = 4
eblock,21,COMPACT,,200
(21i9)
    74505    43985    43886    44087    43986
    74506    43987    43887    43886    43985
    74507    43988    43888    43887    43987
    74508    43989    43889    43888    43988
    74509    43990    43890    43889    43989
    74510    43991    43891    43890    43990
    74511    43992    43892    43891    43991
    74512    43993    43893    43892    43992
    74513    43994    43894    43893    43993
    74514    43995    43895    43894    43994
    74515    43996    43896    43895    43995
    74516    43997    43897    43896    43996
    74517    43998    43898    43897    43997
    74518    43999    43899    43898    43998
    74519    44000    43900    43899    43999
    74520    44001    43901    43900    44000
    74521    44002    43902    43901    44001
    74522    44003    43903    43902    44002
    74523    44004    43904    43903    44003
    74524    44005    43905    43904    44004
! ... 181 like lines cut
secnum,1    ! reset the section ID to default
MAT,9 $ TYPE,9 $ REAL,10 $ SECNUM,9 $ ESYS,0    ! ELEMNODES = 4
eblock,21,COMPACT,,200
(21i9)
    74705    54413    54215    54415    54414
    74706    54412    54216    54215    54413
    74707    54411    54217    54216    54412
    74708    54410    54218    54217    54411
    74709    54409    54219    54218    54410
    74710    54408    54220    54219    54409
    74711    54407    54221    54220    54408
    74712    54406    54222    54221    54407
    74713    54405    54223    54222    54406
    74714    54404    54224    54223    54405
    74715    54403    54225    54224    54404
    74716    54402    54226    54225    54403
    74717    54401    54227    54226    54402
    74718    54400    54228    54227    54401
    74719    54399    54229    54228    54400
    74720    54398    54230    54229    54399
    74721    54397    54231    54230    54398
    74722    54396    54232    54231    54397
    74723    54395    54233    54232    54396
    74724    54394    54234    54233    54395
! ... 181 like lines cut
secnum,1    ! reset the section ID to default
MAT,10 $ TYPE,10 $ REAL,9 $ SECNUM,10 $ ESYS,0    ! ELEMNODES = 4
eblock,21,COMPACT,,200
(21i9)
    74905    54413    54215    54415    54414
    74906    54412    54216    54215    54413
    74907    54411    54217    54216    54412
    74908    54410    54218    54217    54411
    74909    54409    54219    54218    54410
    74910    54408    54220    54219    54409
    74911    54407    54221    54220    54408
    74912    54406    54222    54221    54407
    74913    54405    54223    54222    54406
    74914    54404    54224    54223    54405
    74915    54403    54225    54224    54404
    74916    54402    54226    54225    54403
    74917    54401    54227    54226    54402
    74918    54400    54228    54227    54401
    74919    54399    54229    54228    54400
    74920    54398    54230    54229    54399
    74921    54397    54231    54230    54398
    74922    54396    54232    54231    54397
    74923    54395    54233    54232    54396
    74924    54394    54234    54233    54395
! ... 181 like lines cut
secnum,1    ! reset the section ID to default
keyo,cid,8,2               ! auto create asymmetric contact (from Program Controlled setting)
keyo,cid,10,0              ! adjust contact stiffness each NR iteration (from Program Controlled setting)
keyo,cid,12,5              ! bonded always
keyo,cid,18,1              ! small sliding turned on by application
keyo,cid,2,0               ! augmented Lagrange (from Program Controlled setting)
keyo,cid,4,0               ! on Gauss point (from Program Controlled setting)
keyo,cid,9,1               ! ignore initial gaps/penetration
keyo,cid,7,0               ! No Prediction
rmod,tid,3,10.      ! FKN
rmod,tid,5,0.       ! ICONT
rmod,tid,6,0.       ! PINB
rmod,tid,10,0.      ! CNOF
rmod,tid,12,0.      ! FKT
rmod,tid,36,230     ! WB DSID
rmod,cid,3,10.      ! FKN
rmod,cid,5,0.       ! ICONT
rmod,cid,6,0.       ! PINB
rmod,cid,10,0.      ! CNOF
rmod,cid,12,0.      ! FKT
rmod,cid,36,230     ! WB DSID
*set,_maxkxx,1670000.
rmod,cid,14,_maxkxx/_ASMDIAG         ! TCC, Divide by Length since Traction Based
rmod,tid,14,_maxkxx/_ASMDIAG      ! TCC, Divide by Length since Traction Based
keyo,cid,1,2     ! Pure thermal contact
nsel,all
esel,all
/golist
fcum,add                   ! add nodal forces up (needed in case have loads on the same edge,vertex)
fcum                       ! reset default on fcum command since done sending WB F loads
ALLSEL,ALL
TUNIF,22.0
FINISH
